LAMMPS (15 Jun 2023)
Loaded 1 plugins from C:\Users\obrb1\AppData\Local\LAMMPS 64-bit 15Jun2023-MSMPI\plugins
## Set temperature
variable T equal 400

units real
atom_style full

read_restart restart.301K
Reading restart file ...
  restart file = 15 Jun 2023, LAMMPS = 15 Jun 2023
  restoring atom style full from restart
  orthogonal box = (-220.14628 -228.78256 -215.6983) to (220.14628 228.78256 215.6983)
  restoring pair style lj/cut/coul/long from restart
  restoring bond style harmonic from restart
  restoring angle style harmonic from restart
  8640 atoms
  5760 bonds
  2880 angles
Finding 1-2 1-3 1-4 neighbors ...
     2 = max # of 1-2 neighbors
     1 = max # of 1-3 neighbors
     1 = max # of 1-4 neighbors
     2 = max # of special neighbors
  read_restart CPU = 0.005 seconds

include forcefield.SPCE
# Original model from Berendsen et al, J Phys Chem 91:6269 (1987)
# Charges and geometry are specified in the "data." file.

mass 1 1.00794 # H
mass 2 15.9994 # O

pair_style lj/cut/coul/long 10.0
pair_modify tail yes
kspace_style pppm 1.0e-5

pair_coeff 1 1 0.00000 0.000
pair_coeff 1 2 0.00000 0.000
pair_coeff 2 2 0.15535 3.166

bond_style harmonic
bond_coeff 1 0.0 1.0

angle_style harmonic
angle_coeff 1 0.0 109.47

pair_modify tail no

group hydrogen type 1
5760 atoms in group hydrogen
group oxygen type 2
2880 atoms in group oxygen

neighbor 2.0 bin
neigh_modify every 1 delay 0 check yes

timestep 2.0

fix constrain all shake 1.0e-4 100 0 b 1 a 1
Finding SHAKE clusters ...
       0 = # of size 2 clusters
       0 = # of size 3 clusters
       0 = # of size 4 clusters
    2880 = # of frozen angles
  find clusters CPU = 0.001 seconds

####### Change size of simulation cell
#fix 2 all deform 1 x scale 10 y scale 10 z scale 10
#### Choose one of the two: NVT or NPT #####
####### NVT: Run simulation at constant volume and temperature
#fix integrate all nvt temp $T $T 200.0
####### NPT: Run simulation at constant pressure and temperature
fix 1 all npt temp $T $T 100.0 iso 1.0 1.0 200.0
fix 1 all npt temp 400 $T 100.0 iso 1.0 1.0 200.0
fix 1 all npt temp 400 400 100.0 iso 1.0 1.0 200.0

# Thermodynamic output
thermo_style custom step time temp etotal enthalpy press vol density
thermo 100

# Trajectory output
dump trj all atom 10 water_$TK.lammpstrj
dump trj all atom 10 water_400K.lammpstrj

run 10000
PPPM initialization ...
  G vector (1/distance) = 0.23519337
  grid = 162 180 160
  stencil order = 5
  estimated absolute RMS force accuracy = 0.0042055903
  estimated relative force accuracy = 1.266501e-05
  3d grid and FFT values/proc = 694450 583200
Generated 0 of 1 mixed pair_coeff terms from geometric mixing rule
Unused restart file global fix info:
  fix style: deform, fix ID: 2
  fix style: nvt, fix ID: integrate
Step          Time           Temp          TotEng        Enthalpy        Press          Volume        Density
142000   284000         300.72428     -6121.0169     -4535.2606      1.251093       86910247       0.00099131477
Averages over the last 51 of 101 rows, steps 147000 to 152000:
Temp TotEng Enthalpy Press Volume Density
400.741 710.877 1938.28 1.01401 8.29958e+07 0.001041
Loop time of 6419.14 on 8 procs for 10000 steps with 8640 atoms

write_restart restart.$TK
write_restart restart.400K
System init for write_restart ...
PPPM initialization ...
  G vector (1/distance) = 0.23731171
  grid = 180 180 160
  stencil order = 5
  estimated absolute RMS force accuracy = 0.0037769808
  estimated relative force accuracy = 1.1374265e-05
  3d grid and FFT values/proc = 767125 648000
Generated 0 of 1 mixed pair_coeff terms from geometric mixing rule
