LAMMPS (15 Jun 2023)
Loaded 1 plugins from C:\Users\obrb1\AppData\Local\LAMMPS 64-bit 15Jun2023-MSMPI\plugins
## Set temperature
variable T equal 251

units real
atom_style full

read_restart restart.250K
Reading restart file ...
  restart file = 29 Oct 2020, LAMMPS = 15 Jun 2023
  restoring atom style full from restart
  orthogonal box = (-22.461251 -23.3424 -22.007429) to (22.461251 23.3424 22.007429)
  restoring pair style lj/cut/coul/long from restart
  restoring bond style harmonic from restart
  restoring angle style harmonic from restart
  8640 atoms
  5760 bonds
  2880 angles
Finding 1-2 1-3 1-4 neighbors ...
     2 = max # of 1-2 neighbors
     1 = max # of 1-3 neighbors
     1 = max # of 1-4 neighbors
     2 = max # of special neighbors
  read_restart CPU = 0.015 seconds

include forcefield.SPCE
# Original model from Berendsen et al, J Phys Chem 91:6269 (1987)
# Charges and geometry are specified in the "data." file.

mass 1 1.00794 # H
mass 2 15.9994 # O

pair_style lj/cut/coul/long 10.0
pair_modify tail yes
kspace_style pppm 1.0e-5

pair_coeff 1 1 0.00000 0.000
pair_coeff 1 2 0.00000 0.000
pair_coeff 2 2 0.15535 3.166

bond_style harmonic
bond_coeff 1 0.0 1.0

angle_style harmonic
angle_coeff 1 0.0 109.47

pair_modify tail no

group hydrogen type 1
5760 atoms in group hydrogen
group oxygen type 2
2880 atoms in group oxygen

neighbor 2.0 bin
neigh_modify every 1 delay 0 check yes

timestep 2.0

fix constrain all shake 1.0e-4 100 0 b 1 a 1
Finding SHAKE clusters ...
       0 = # of size 2 clusters
       0 = # of size 3 clusters
       0 = # of size 4 clusters
    2880 = # of frozen angles
  find clusters CPU = 0.001 seconds

####### Change size of simulation cell
#fix 2 all deform 1 x scale 10 y scale 10 z scale 10
#### Choose one of the two: NVT or NPT #####
####### NVT: Run simulation at constant volume and temperature
#fix integrate all nvt temp $T $T 200.0
####### NPT: Run simulation at constant pressure and temperature
fix 1 all npt temp $T $T 100.0 iso 1.0 1.0 200.0
fix 1 all npt temp 251 $T 100.0 iso 1.0 1.0 200.0
fix 1 all npt temp 251 251 100.0 iso 1.0 1.0 200.0

# Thermodynamic output
thermo_style custom step time temp etotal enthalpy press vol density
thermo 100

# Trajectory output
dump trj all atom 10 water_$TK.lammpstrj
dump trj all atom 10 water_251K.lammpstrj

run 20000
PPPM initialization ...
  G vector (1/distance) = 0.30304907
  grid = 40 40 36
  stencil order = 5
  estimated absolute RMS force accuracy = 0.0033507515
  estimated relative force accuracy = 1.0090689e-05
  3d grid and FFT values/proc = 31347 14400
Generated 0 of 1 mixed pair_coeff terms from geometric mixing rule
Unused restart file global fix info:
  fix style: nvt, fix ID: integrate
Unused restart file peratom fix info:
  fix style: STORE, fix ID: cO_COMPUTE_STORE
  fix style: STORE, fix ID: cH_COMPUTE_STORE
  fix style: STORE, fix ID: A_COMPUTE_STORE
Step          Time           Temp          TotEng        Enthalpy        Press          Volume        Density
100000   200000         244.89486     -32608.769     -33102.917     -367.06428      92307.873      0.93334847
Averages over the last 101 of 201 rows, steps 110000 to 120000:
Temp TotEng Enthalpy Press Volume Density
251.087 -32483 -32456.5 20.0439 91961.2 0.93687
Loop time of 691.063 on 4 procs for 20000 steps with 8640 atoms

write_restart restart.$TK
write_restart restart.251K
System init for write_restart ...
PPPM initialization ...
  G vector (1/distance) = 0.30319378
  grid = 40 40 36
  stencil order = 5
  estimated absolute RMS force accuracy = 0.0033311719
  estimated relative force accuracy = 1.0031725e-05
  3d grid and FFT values/proc = 31347 14400
Generated 0 of 1 mixed pair_coeff terms from geometric mixing rule
